DATABASE /data/pt426/phreeqc-3.8.6-17100/database/phreeqc.dat

SOLUTION 1 Ocean
    temp        30.0        # Temperature in degrees Celsius
    pressure    1.0         # Pressure in atmospheres
    pH          7.0         # Initial pH
    units       mmol/kgw    # Units for concentration
    Ca          0.0         # Calcium concentration
    Na          0.0         # Sodium concentration
    Cl          0.0         # Chloride concentration
    C           0.0         # Total dissolved carbon
    water       1.0         # Mass of water in kg

EQUILIBRIUM_PHASES 1 Atmosphere
    CO2(g)      -3.5        10.0    # partial pressure in log(atm) and number of moles of CO2

SELECTED_OUTPUT
    -file output.txt
    -equilibrium_phases CO2(g)
    -simulation false
    -solution false
    -distance false
    -step false
    -time false
    -pH true
    -pe false
    -percent_error true
    -totals C Ca Na Cl

END