DATABASE /data/pt426/phreeqc-3.8.6-17100/database/phreeqc.dat

SOLUTION 1 Ocean
    temp        60.0        # Temperature in degrees Celsius [1, 2]
    pressure    1.5         # Pressure in atmospheres [2]
    pH          8.0         # Initial pH
    units       mmol/kgw    # Units for concentration [3]
    C           0.0         # Total dissolved carbon [4]

EQUILIBRIUM_PHASES 1 Atmosphere
    CO2(g)      -3.5        10.0    # partial pressure in log(atm) and number of moles of CO2

SELECTED_OUTPUT
    -file output.txt
    -equilibrium_phases CO2(g)
    -simulation false
    -solution false
    -distance false
    -pH true
    -alkalinity true
    -percent_error true
    -totals C O H # Example totals

END