DATABASE /data/pt426/phreeqc-3.8.6-17100/database/phreeqc.dat

SOLUTION 1 Example ocean water
    temp        60.0        # Temperature in degrees Celsius [1, 2]
    pressure    1.5         # Pressure in atmospheres [2]
    pH          8.0         # Initial pH
    units       mmol/kgw    # Units for concentration [3]
    Ca          10.0        # Calcium concentration [3]
    Na          450.0       # Sodium concentration [3]
    Cl          470.0       # Chloride concentration [3]
    C           2.0         # Total dissolved carbon [4]

EQUILIBRIUM_PHASES 1 Atmosphere
    CO2(g)      -3.5        10.0    # partial pressure in log(atm) and number of moles of CO2

END